           6
 Eigenmode           1  -319.55026480957088      cm-1
C    1.406486 -0.031084 -0.019490 atom_vector   0.000000 -0.019986  0.011538
O   -0.008609 -0.007691 -0.007428 atom_vector   0.000000 -0.018862  0.010892
H    1.781589  1.072229  0.008008 atom_vector  -0.000179 -0.020686 -0.408284
H    1.776243 -0.513270 -0.880581 atom_vector  -0.000002 -0.379969  0.219375
H    1.769444 -0.517785  0.903528 atom_vector   0.000181  0.343228  0.222049
H   -0.281813  0.459580  0.796122 atom_vector  -0.000004  0.595138 -0.343609
           6
 Eigenmode           2  -236.46479664825682      cm-1
C    1.406486 -0.031084 -0.019490 atom_vector  -0.000000  0.091177 -0.052641
O   -0.008609 -0.007691 -0.007428 atom_vector   0.000000 -0.055833  0.032235
H    1.781589  1.072229  0.008008 atom_vector  -0.088345  0.128416 -0.459247
H    1.776243 -0.513270 -0.880581 atom_vector  -0.000001 -0.202847  0.117115
H    1.769444 -0.517785  0.903528 atom_vector   0.088341  0.461916  0.118408
H   -0.281813  0.459580  0.796122 atom_vector   0.000004 -0.587047  0.338938
           6
 Eigenmode           3  -202.15054592251084      cm-1
C    1.406486 -0.031084 -0.019490 atom_vector  -0.007252 -0.127320 -0.220478
O   -0.008609 -0.007691 -0.007428 atom_vector  -0.015142  0.120898  0.209344
H    1.781589  1.072229  0.008008 atom_vector   0.178778 -0.191946 -0.330939
H    1.776243 -0.513270 -0.880581 atom_vector  -0.370593 -0.192696 -0.333626
H    1.769444 -0.517785  0.903528 atom_vector   0.178697 -0.190644 -0.331632
H   -0.281813  0.459580  0.796122 atom_vector   0.340018  0.172051  0.298130
           6
 Eigenmode           4  -157.73043697158272      cm-1
C    1.406486 -0.031084 -0.019490 atom_vector  -0.000001  0.162225 -0.093693
O   -0.008609 -0.007691 -0.007428 atom_vector  -0.000001 -0.197307  0.113946
H    1.781589  1.072229  0.008008 atom_vector  -0.294852  0.258378  0.128053
H    1.776243 -0.513270 -0.880581 atom_vector  -0.000039  0.496552 -0.286733
H    1.769444 -0.517785  0.903528 atom_vector   0.294879  0.018257 -0.287853
H   -0.281813  0.459580  0.796122 atom_vector   0.000032  0.427774 -0.246940
           6
 Eigenmode           5 -0.12541080085599476      cm-1
C    1.406486 -0.031084 -0.019490 atom_vector  -0.246309  0.263202 -0.191634
O   -0.008609 -0.007691 -0.007428 atom_vector  -0.246309  0.263202 -0.191634
H    1.781589  1.072229  0.008008 atom_vector  -0.246309  0.263202 -0.191634
H    1.776243 -0.513270 -0.880581 atom_vector  -0.246309  0.263202 -0.191634
H    1.769444 -0.517785  0.903528 atom_vector  -0.246309  0.263202 -0.191634
H   -0.281813  0.459580  0.796122 atom_vector  -0.246309  0.263202 -0.191634
           6
 Eigenmode           6   6.4964832954213791E-002 cm-1
C    1.406486 -0.031084 -0.019490 atom_vector  -0.118389  0.151439  0.360162
O   -0.008609 -0.007691 -0.007428 atom_vector  -0.118389  0.151439  0.360162
H    1.781589  1.072229  0.008008 atom_vector  -0.118389  0.151439  0.360162
H    1.776243 -0.513270 -0.880581 atom_vector  -0.118389  0.151439  0.360162
H    1.769444 -0.517785  0.903528 atom_vector  -0.118389  0.151439  0.360162
H   -0.281813  0.459580  0.796122 atom_vector  -0.118389  0.151439  0.360162
           6
 Eigenmode           7  0.10803856241359193      cm-1
C    1.406486 -0.031084 -0.019490 atom_vector   0.303286  0.272870 -0.015041
O   -0.008609 -0.007691 -0.007428 atom_vector   0.303286  0.272870 -0.015041
H    1.781589  1.072229  0.008008 atom_vector   0.303286  0.272870 -0.015041
H    1.776243 -0.513270 -0.880581 atom_vector   0.303286  0.272870 -0.015041
H    1.769444 -0.517785  0.903528 atom_vector   0.303286  0.272870 -0.015041
H   -0.281813  0.459580  0.796122 atom_vector   0.303286  0.272870 -0.015041
           6
 Eigenmode           8   1007.9764916638052      cm-1
C    1.406486 -0.031084 -0.019490 atom_vector   0.023001 -0.025901 -0.044857
O   -0.008609 -0.007691 -0.007428 atom_vector  -0.058217 -0.004330 -0.007503
H    1.781589  1.072229  0.008008 atom_vector  -0.254277  0.065672  0.202361
H    1.776243 -0.513270 -0.880581 atom_vector   0.441374  0.056792  0.098376
H    1.769444 -0.517785  0.903528 atom_vector  -0.254245  0.142422  0.158051
H   -0.281813  0.459580  0.796122 atom_vector   0.717755  0.112492  0.194829
           6
 Eigenmode           9   1091.2108933015004      cm-1
C    1.406486 -0.031084 -0.019490 atom_vector  -0.458222 -0.001553 -0.002670
O   -0.008609 -0.007691 -0.007428 atom_vector   0.376372 -0.004478 -0.007767
H    1.781589  1.072229  0.008008 atom_vector  -0.373676  0.013438  0.077330
H    1.776243 -0.513270 -0.880581 atom_vector  -0.290993  0.020365  0.035249
H    1.769444 -0.517785  0.903528 atom_vector  -0.373595  0.060267  0.050306
H   -0.281813  0.459580  0.796122 atom_vector   0.519945 -0.004446 -0.007705
           6
 Eigenmode          10   1176.4493919854360      cm-1
C    1.406486 -0.031084 -0.019490 atom_vector   0.000012 -0.124366  0.071804
O   -0.008609 -0.007691 -0.007428 atom_vector  -0.000003  0.055663 -0.032135
H    1.781589  1.072229  0.008008 atom_vector  -0.614888  0.097235 -0.193957
H    1.776243 -0.513270 -0.880581 atom_vector  -0.000019  0.305431 -0.176354
H    1.769444 -0.517785  0.903528 atom_vector   0.614841  0.216535  0.012767
H   -0.281813  0.459580  0.796122 atom_vector  -0.000032 -0.021508  0.012411
           6
 Eigenmode          11   1295.0829626627528      cm-1
C    1.406486 -0.031084 -0.019490 atom_vector   0.007350  0.072234  0.125118
O   -0.008609 -0.007691 -0.007428 atom_vector  -0.041455 -0.041215 -0.071384
H    1.781589  1.072229  0.008008 atom_vector   0.219025 -0.006320 -0.278966
H    1.776243 -0.513270 -0.880581 atom_vector  -0.521252 -0.025931 -0.044989
H    1.769444 -0.517785  0.903528 atom_vector   0.219002 -0.238413 -0.144936
H   -0.281813  0.459580  0.796122 atom_vector   0.654073  0.064633  0.111934
           6
 Eigenmode          12   1395.0165483662081      cm-1
C    1.406486 -0.031084 -0.019490 atom_vector  -0.113749  0.000883  0.001553
O   -0.008609 -0.007691 -0.007428 atom_vector  -0.018585 -0.002329 -0.004034
H    1.781589  1.072229  0.008008 atom_vector   0.530458 -0.212345  0.009463
H    1.776243 -0.513270 -0.880581 atom_vector   0.524963  0.115786  0.200333
H    1.769444 -0.517785  0.903528 atom_vector   0.530434  0.114445 -0.179088
H   -0.281813  0.459580  0.796122 atom_vector   0.064616  0.008583  0.014865
           6
 Eigenmode          13   1429.3066534517936      cm-1
C    1.406486 -0.031084 -0.019490 atom_vector  -0.000006  0.040628 -0.023487
O   -0.008609 -0.007691 -0.007428 atom_vector  -0.000011  0.013474 -0.007802
H    1.781589  1.072229  0.008008 atom_vector  -0.338367  0.143424  0.340204
H    1.776243 -0.513270 -0.880581 atom_vector  -0.000320 -0.610050  0.352064
H    1.769444 -0.517785  0.903528 atom_vector   0.338858 -0.221971 -0.293985
H   -0.281813  0.459580  0.796122 atom_vector   0.000075 -0.009491  0.005486
           6
 Eigenmode          14   1433.3028053260853      cm-1
C    1.406486 -0.031084 -0.019490 atom_vector   0.006716 -0.018643 -0.032204
O   -0.008609 -0.007691 -0.007428 atom_vector  -0.008521 -0.009910 -0.017140
H    1.781589  1.072229  0.008008 atom_vector   0.204757 -0.081383  0.587227
H    1.776243 -0.513270 -0.880581 atom_vector  -0.417715 -0.089348 -0.155955
H    1.769444 -0.517785  0.903528 atom_vector   0.204216  0.549642  0.223642
H   -0.281813  0.459580  0.796122 atom_vector   0.064059  0.000605  0.001029
           6
 Eigenmode          15   2985.6307265214800      cm-1
C    1.406486 -0.031084 -0.019490 atom_vector   0.041365  0.004130  0.007199
O   -0.008609 -0.007691 -0.007428 atom_vector   0.004587  0.000099  0.000172
H    1.781589  1.072229  0.008008 atom_vector  -0.194529 -0.575895  0.000379
H    1.776243 -0.513270 -0.880581 atom_vector  -0.173940  0.239012  0.413986
H    1.769444 -0.517785  0.903528 atom_vector  -0.194638  0.288432 -0.498829
H   -0.281813  0.459580  0.796122 atom_vector  -0.002604 -0.002330 -0.004040
           6
 Eigenmode          16   3123.5239908103727      cm-1
C    1.406486 -0.031084 -0.019490 atom_vector   0.000017  0.081772 -0.047299
O   -0.008609 -0.007691 -0.007428 atom_vector   0.000000  0.000573 -0.000331
H    1.781589  1.072229  0.008008 atom_vector  -0.228617 -0.665456 -0.011544
H    1.776243 -0.513270 -0.880581 atom_vector  -0.000291  0.011511 -0.005726
H    1.769444 -0.517785  0.903528 atom_vector   0.228706 -0.322882  0.582291
H   -0.281813  0.459580  0.796122 atom_vector  -0.000002 -0.006561  0.003779
           6
 Eigenmode          17   3149.8975776372145      cm-1
C    1.406486 -0.031084 -0.019490 atom_vector  -0.006817  0.047113  0.081444
O   -0.008609 -0.007691 -0.007428 atom_vector   0.000889 -0.000178 -0.000309
H    1.781589  1.072229  0.008008 atom_vector  -0.115124 -0.336145  0.010705
H    1.776243 -0.513270 -0.880581 atom_vector   0.294835 -0.403785 -0.699392
H    1.769444 -0.517785  0.903528 atom_vector  -0.114742  0.176806 -0.284787
H   -0.281813  0.459580  0.796122 atom_vector   0.002131  0.004607  0.007992
           6
 Eigenmode          18   3709.2296725760789      cm-1
C    1.406486 -0.031084 -0.019490 atom_vector  -0.003667 -0.000718 -0.001243
O   -0.008609 -0.007691 -0.007428 atom_vector   0.020994 -0.029887 -0.051766
H    1.781589  1.072229  0.008008 atom_vector  -0.000887  0.000395  0.000904
H    1.776243 -0.513270 -0.880581 atom_vector  -0.003732  0.003963  0.006863
H    1.769444 -0.517785  0.903528 atom_vector  -0.000887  0.000585  0.000793
H   -0.281813  0.459580  0.796122 atom_vector  -0.284253  0.478308  0.828440
